#
# *******************************************************************
# OOFEM Output File Name Record
#
Mesh.out
#
#
# *******************************************************************
# Description Record
#
TestOofem
#
#
# *******************************************************************
# Analysis and extra Output Modules Record
#
LinearStatic  nsteps 1  nmodules 1
vtkxml tstep_all domain_all  primvars 1 1  vars 5 1 2 4 5 27  stype 2
#
#
# *******************************************************************
# Domain Record
#
domain 3d
#
#
# *******************************************************************
# Output Manager Record
#
OutputManager tstep_all dofman_all element_all
#
#
# *******************************************************************
# Components Size Record
#
ndofman 228  nelem 79  ncrosssect 1  nmat 1  nbc 2  nic 0  nltf 1  nset 3
#
#
# *******************************************************************
# DOF Manager Record
#
#
# *******************************************************************
# Node and Element Records
#
# Node Records
#
node 1 coords 3  8000.0  1000.0  0.0
node 2 coords 3  8000.0  1000.0  1000.0
node 3 coords 3  8000.0  0.0  0.0
node 4 coords 3  8000.0  0.0  1000.0
node 5 coords 3  0.0  1000.0  0.0
node 6 coords 3  0.0  1000.0  1000.0
node 7 coords 3  0.0  0.0  0.0
node 8 coords 3  0.0  0.0  1000.0
node 9 coords 3  728.0  1000.0  1000.0
node 10 coords 3  1456.0  1000.0  1000.0
node 11 coords 3  2184.0  1000.0  1000.0
node 12 coords 3  2912.0  1000.0  1000.0
node 13 coords 3  3640.0  1000.0  1000.0
node 14 coords 3  4368.0  1000.0  1000.0
node 15 coords 3  5096.0  1000.0  1000.0
node 16 coords 3  5824.0  1000.0  1000.0
node 17 coords 3  6552.0  1000.0  1000.0
node 18 coords 3  7280.0  1000.0  1000.0
node 19 coords 3  728.0  0.0  1000.0
node 20 coords 3  1456.0  0.0  1000.0
# ... 208 like lines cut
#
# Element Records
#
QTRSpace 1 nodes 10 40 19 20 10 168 66 171 196 106 107
QTRSpace 2 nodes 10 10 31 40 30 150 128 196 149 79 129
QTRSpace 3 nodes 10 38 17 47 18 163 197 140 166 62 198
QTRSpace 4 nodes 10 32 41 12 11 130 200 165 152 199 56
QTRSpace 5 nodes 10 12 32 42 41 165 143 201 200 130 92
QTRSpace 6 nodes 10 42 21 22 12 172 68 185 201 110 123
QTRSpace 7 nodes 10 10 31 11 40 150 151 55 196 128 202
QTRSpace 8 nodes 10 11 12 21 41 56 110 109 199 200 173
QTRSpace 9 nodes 10 20 41 40 11 170 91 171 108 199 202
QTRSpace 10 nodes 10 20 41 11 21 170 199 108 67 173 109
QTRSpace 11 nodes 10 32 11 31 41 152 151 80 130 199 131
QTRSpace 12 nodes 10 11 10 40 20 55 196 202 108 107 171
QTRSpace 13 nodes 10 38 17 37 47 163 162 86 140 197 141
QTRSpace 14 nodes 10 38 18 48 49 166 205 145 203 204 206
QTRSpace 15 nodes 10 46 15 36 45 207 159 139 96 208 137
QTRSpace 16 nodes 10 47 16 37 46 209 161 141 97 210 138
QTRSpace 17 nodes 10 18 4 49 2 122 189 204 63 64 190
QTRSpace 18 nodes 10 18 17 47 27 62 197 198 121 120 183
QTRSpace 19 nodes 10 38 18 47 48 166 198 140 145 205 98
QTRSpace 20 nodes 10 12 23 22 42 111 69 123 201 175 185
# ... 59 like lines cut
#
#
# *******************************************************************
# Cross Section Record
#
SimpleCS 1  material 1  set 1
#
#
# *******************************************************************
# Material Type Record
#
# unit density: t/mm^3
# unit Youngs Modulus: MPa = N/mm2
# unit Thermal Expansion Coefficient: 1/K
IsoLE 1  d 7.900000000000001e-09  E 210000   n 0.3  talpha 1.2e-05 
#
#
# *******************************************************************
# Boundary Condition Record
#
# FreeCAD displacement constraints
#
# FreeCAD fixed constraints
BoundaryCondition 1  loadTimeFunction 1  dofs 3 1 2 3  values 3 0 0 0  set 2
#
#
# *******************************************************************
# Nodal Load Record
#
# node load on shape: Box:Vertex5
# node load on shape: Box:Vertex6
# node load on shape: Box:Vertex7
# node load on shape: Box:Vertex8
NodalLoad 2  loadTimeFunction 1  dofs 3 1 2 3  components 3 0.0 0.0 -2250000.0  set 3
#
#
# *******************************************************************
# Time Function Record
#
ConstantFunction 1  f(t) 1.0
#
#
# *******************************************************************
# Set Record
#
Set 1  elementranges {(1 79)}
#
Set 2  nodes 13  192 193 194 195 5 6 7 8 101 103 76 50 52
Set 3  nodes 4  1 2 3 4
#
#
# *******************************************************************
# End of Input File
#
