** written by FreeCAD inp file writer for CalculiX,Abaqus meshes
** highest dimension mesh elements only.

** Nodes
*Node, NSET=Nall
1, 200, 0, 20
2, 200, 0, 0
3, 200, 10, 20
4, 200, 10, 0
5, 100, 0, 0
6, 100, 0, 20
7, 184, 0, 10
8, 100, 10, 20
9, 100, 10, 0
10, 184, 10, 10
11, 0, 0, 0
12, 0, 0, 20
13, 16, 0, 10
14, 0, 10, 20
15, 0, 10, 0
16, 16, 10, 10
17, 200, 0, 5
18, 200, 0, 10
19, 200, 0, 15
20, 200, 0, 2.5
** ... 3903 like lines cut


** Volume elements
*Element, TYPE=C3D10, ELSET=Evolumes
1565, 1018, 521, 1019, 2684, 2694, 2693, 1314, 2696, 2695, 2697
1566, 1525, 1574, 1505, 2682, 1865, 1866, 1864, 2699, 2698, 2700
1567, 508, 521, 1018, 2684, 712, 2694, 2701, 2702, 2695, 2696
1568, 2676, 1021, 510, 2688, 2705, 2703, 2704, 2707, 2706, 2708
1569, 1516, 1502, 2086, 1532, 1854, 2709, 2710, 1734, 1842, 2711
1570, 2078, 1524, 2094, 2064, 2713, 2712, 2288, 2358, 2714, 2357
1571, 1576, 1523, 1506, 2682, 1858, 1857, 1859, 2716, 2715, 2717
1572, 2082, 1526, 2675, 2687, 2720, 2718, 2719, 2722, 2721, 2723
1573, 1370, 1881, 1880, 2665, 2725, 1930, 2724, 2727, 2726, 2728
1574, 494, 1373, 564, 2692, 2730, 2729, 771, 2732, 2731, 2733
1575, 1505, 1574, 2080, 2682, 1866, 2734, 2735, 2700, 2698, 2736
1576, 1015, 867, 877, 2688, 2738, 922, 2737, 2740, 2739, 2741
1577, 1572, 1536, 2609, 2666, 1755, 2742, 2743, 2745, 2744, 2746
1578, 537, 1011, 1376, 515, 2749, 2747, 2748, 651, 2750, 2751
1579, 1014, 872, 2664, 2691, 2754, 2752, 2753, 2756, 2755, 2757
1580, 1522, 1546, 1504, 2079, 1639, 1827, 1826, 2759, 2758, 2760
1581, 1041, 506, 871, 1020, 2763, 2761, 2762, 1155, 2764, 2765
1582, 564, 1373, 494, 538, 2729, 2730, 771, 626, 2766, 772
1583, 1042, 868, 1069, 999, 2768, 2767, 1131, 1254, 2769, 1324
1584, 510, 1372, 1021, 2676, 2771, 2770, 2703, 2704, 2772, 2705
** ... 1848 like lines cut

** Define element set Eall
*ELSET, ELSET=Eall
Evolumes



***********************************************************
** Element sets for materials and FEM element type (solid, shell, beam, fluid)
** written by write_element_sets_material_and_femelement_type function
*ELSET,ELSET=FemMaterialSolid
Evolumes

***********************************************************
** constraints displacement node sets
** written by write_node_sets_constraints_displacement function
** FemConstraintDisplacment
*NSET,NSET=FemConstraintDisplacment
7,
10,
13,
16,
122,
123,
124,
125,
126,
127,
128,
129,
130,
131,
132,
133,
134,
135,
136,
225,
** ... 172 like lines cut

***********************************************************
** constraints transform node sets
** written by write_node_sets_constraints_transform function
** FemConstraintTransform
*NSET,NSET=CylinFemConstraintTransform
7,
10,
13,
16,
122,
123,
124,
125,
126,
127,
128,
129,
130,
131,
132,
133,
134,
135,
136,
225,
** ... 172 like lines cut

***********************************************************
** Materials
** written by write_materials function
** Young's modulus unit is MPa = N/mm2
** FreeCAD material name: CalculiX-Steel
** FemMaterial
*MATERIAL, NAME=FemMaterial
*ELASTIC
210000, 0.300

***********************************************************
** Sections
** written by write_femelementsets function
*SOLID SECTION, ELSET=FemMaterialSolid, MATERIAL=FemMaterial

***********************************************************
** Transform Constraints
** written by write_constraints_transform function
** FemConstraintTransform
*TRANSFORM, NSET=CylinFemConstraintTransform, TYPE=C
0.0,10.0,0.0,0.0,-10.0,0.0

***********************************************************
** At least one step is needed to run an CalculiX analysis of FreeCAD
** written by write_step_begin function
*STEP
*STATIC


***********************************************************
** Displacement constraint applied
** written by write_constraints_displacement function
** FemConstraintDisplacment
*BOUNDARY
FemConstraintDisplacment,1


***********************************************************
** constraints pressure element face loads
** written by write_constraints_pressure function
** FemConstraintPressure
*DLOAD
** FemConstraintPressure: face load
1951,P1,10.0
1953,P4,10.0
2020,P4,10.0
2021,P4,10.0
2023,P1,10.0
2024,P1,10.0
2028,P1,10.0
2062,P1,10.0
2078,P1,10.0
2088,P1,10.0
2089,P4,10.0
2091,P4,10.0
2092,P1,10.0
2129,P3,10.0
2136,P4,10.0
2154,P2,10.0
2156,P1,10.0
2164,P4,10.0
2191,P3,10.0
2192,P2,10.0
** ... 152 like lines cut

***********************************************************
** Outputs --> frd file
** written by write_outputs_types function
*NODE FILE
U
*EL FILE
S, E

***********************************************************
** written by write_step_end function
*END STEP 

***********************************************************
** CalculiX Input file
** written by write_footer function
**   written by    --> FreeCAD 0.19.21194 +32 (Git)
**   written on    --> Sun May 24 02:36:37 2020
**   file name     --> 
**   analysis name --> Analysis
**
**
**
**   Units
**
**   Geometry (mesh data)        --> mm
**   Materials (Young's modulus) --> N/mm2 = MPa
**   Loads (nodal loads)         --> N
**
