Check Keywords Warn

Header
  Mesh DB "."
End

Solver 1
  Linear System Residual Output = Integer 1
  Linear System Solver = String "Iterative"
  Calculate Strains = Logical False
  Linear System Convergence Tolerance = Real 1e-08
  Linear System Precondition Recompute = Integer 1
  Displace mesh = Logical False
  Variable = String "Displacement"
  Bubbles = Logical False
  Linear System Abort Not Converged = Logical False
  Eigen System Values = Integer 5
  Stabilize = Logical True
  Eigen Analysis = Logical False
  Equation = String "Elasticity"
  Linear System Max Iterations = Integer 500
  Linear System Preconditioning = String "ILU0"
  Procedure = File "StressSolve" "StressSolver"
  Exec Solver = String "Always"
  Variable DOFs = Integer 3
  Calculate Pangle = Logical False
  Linear System Iterative Method = String "BiCGStab"
  Calculate Principal = Logical False
  Calculate Stresses = Logical False
  Optimize Bandwidth = Logical True
  Steady State Convergence Tolerance = Real 1e-05
End

Body 1
  Equation = Integer 1
  Material = Integer 1
  Name = String "Solid1"
End

Equation 1
  Active Solvers(2) = Integer 1 2
End

Simulation 
  Coordinate System = String "Cartesian 3D"
  Steady State Max Iterations = Integer 1
  Coordinate Mapping(3) = Integer 1 2 3
  BDF Order = Integer 1
  Use Mesh Names = Logical True
  Timestepping Method = String "BDF"
  Output Intervals = Integer 1
  Simulation Type = String "Steady state"
  Steady State Min Iterations = Integer 0
End

Solver 2
  Output File Name = File "case"
  Equation = String "ResultOutput"
  Vtu Format = Logical True
  Procedure = File "ResultOutputSolve" "ResultOutputSolver"
  Exec Solver = String "After simulation"
End

Boundary Condition 1
  Displacement 3 = Real 0.0
  Displacement 2 = Real 0.0
  Displacement 1 = Real 0.0
  Name = String "Face1"
End

Constants 
End

Boundary Condition 2
  Normal Force = Real -1000000.0
  Name = String "Face2"
End

Material 1
  Youngs Modulus = Real 200000000.0
  Heat expansion Coefficient = Real 0.0
  Poisson ratio = Real 0.3
  Density = Real 7.9e-06
End

Boundary Condition 3
  Name = String "Face6"
  Force 3 Normalize by Area = Logical True
  Force 1 Normalize by Area = Logical True
  Force 2 Normalize by Area = Logical True
  Force 2 = Real -0.0
  Force 3 = Real -40000000.0
  Force 1 = Real -0.0
End

